  
       XFOIL         Version 6.96
  
 MEASURED RIGG polar for: flat plate aspect ratio 1
  
 1 1 Reynolds number fixed          Mach number fixed         
  
 xtrf =   1.000 (top)        1.000 (bottom)  
 Mach =   0.000     Re =     0.140 e 6     Ncrit =   9.000
  
   alpha    CL        CD       CDp       CM     Top_Xtr  Bot_Xtr
  ------ -------- --------- --------- -------- -------- --------
 -10.000  -0.2500   0.06000   0.00000   0.0000   1.0000   0.0000
   0.000   0.0000   0.01500   0.00000   0.0000   1.0000   0.0000
  15.000   0.5000   0.15000   0.00000   0.0000   1.0000   0.0000
