xflr5 v6.59

 Calculated polar for: XY-123

 1 1 Reynolds number fixed          Mach number fixed         

 xtrf =   1.000 (top)        1.000 (bottom)
 Mach =   0.000     Re =     0.500 e 6     Ncrit =   9.000

  alpha     CL        CD       CDp       Cm    Top Xtr Bot Xtr   Cpmin    Chinge    XCp    
 ------- -------- --------- --------- -------- ------- ------- -------- --------- ---------
 -10.000  -1.3381   0.01725   0.01052   0.0212  1.0000  0.0771  -4.1385   0.0000   0.0000   0.0000   0.2532
   0.000  -0.3407   0.00956   0.00314   0.0426  0.0233  0.6546  -1.7284   0.0000   0.0000   0.0000   0.3740
  10.000   0.3765   0.11770   0.11535  -0.0001  0.0080  1.0000  -1.4523   0.0000   0.0000   0.0000   0.2496


