  
       XFOIL         Version 6.96
  
 Calculated polar for: XY 123                                       
  
 1 1 Reynolds number fixed          Mach number fixed         
  
 xtrf =   1.000 (top)        1.000 (bottom)  
 Mach =   0.000     Re =     0.100 e 6     Ncrit =   9.000
  
   alpha    CL        CD       CDp       CM     Top_Xtr  Bot_Xtr
  ------ -------- --------- --------- -------- -------- --------
 -10.000  -1.0000   0.20000   0.30000   -0.0500  1.0000   0.0010
   0.000   0.0000   0.10000   0.05000   0.0000   1.0000   1.0000
  10.000   1.0000   0.20000   0.30000   0.0050   0.0100   1.0000
