  
       XFOIL         Version 6.96
  
 Calculated polar for: XY 123                                       
  
 1 1 Reynolds number fixed          Mach number fixed         
  
 xtrf =   1.000 (top)        1.000 (bottom)  
 Mach =   0.000     Re =     1.000 e 6     Ncrit =   9.000
  
   alpha    CL        CD       CDp       CM     Top_Xtr  Bot_Xtr
  ------ -------- --------- --------- -------- -------- --------
 -13.000  -1.0123   0.20000   0.30000   0.0500   1.0000   0.0010
    7.750  0.0823   0.10000   0.05100   0.0050   1.0000   0.0100
